*Heading
** Job name: Job-5 Model name: Model-1
** Generated by: Abaqus/CAE 2022
*Preprint, echo=NO, model=NO, history=NO, contact=NO
**
** PARTS
**
*Part, name=Part-1
*Node
      1,          15.,          10.,  0.150000006
      2,          15.,          9.5,  0.150000006
      3,          15.,           9.,  0.150000006
      4,          15.,          8.5,  0.150000006
      5,          15.,           8.,  0.150000006
      6,          15.,          7.5,  0.150000006
      7,          15.,           7.,  0.150000006
      8,          15.,          6.5,  0.150000006
      9,          15.,           6.,  0.150000006
     10,          15.,          5.5,  0.150000006
     11,          15.,           5.,  0.150000006
     12,          15.,          4.5,  0.150000006
     13,          15.,           4.,  0.150000006
     14,          15.,          3.5,  0.150000006
     15,          15.,           3.,  0.150000006
     16,          15.,          2.5,  0.150000006
     17,          15.,           2.,  0.150000006
     18,          15.,          1.5,  0.150000006
     19,          15.,           1.,  0.150000006
     20,          15.,          0.5,  0.150000006
** ... 1282 like lines cut
*Element, type=C3D8R
  1,   64,   65,   23,   22,   43,   44,    2,    1
  2,   65,   66,   24,   23,   44,   45,    3,    2
  3,   66,   67,   25,   24,   45,   46,    4,    3
  4,   67,   68,   26,   25,   46,   47,    5,    4
  5,   68,   69,   27,   26,   47,   48,    6,    5
  6,   69,   70,   28,   27,   48,   49,    7,    6
  7,   70,   71,   29,   28,   49,   50,    8,    7
  8,   71,   72,   30,   29,   50,   51,    9,    8
  9,   72,   73,   31,   30,   51,   52,   10,    9
 10,   73,   74,   32,   31,   52,   53,   11,   10
 11,   74,   75,   33,   32,   53,   54,   12,   11
 12,   75,   76,   34,   33,   54,   55,   13,   12
 13,   76,   77,   35,   34,   55,   56,   14,   13
 14,   77,   78,   36,   35,   56,   57,   15,   14
 15,   78,   79,   37,   36,   57,   58,   16,   15
 16,   79,   80,   38,   37,   58,   59,   17,   16
 17,   80,   81,   39,   38,   59,   60,   18,   17
 18,   81,   82,   40,   39,   60,   61,   19,   18
 19,   82,   83,   41,   40,   61,   62,   20,   19
 20,   83,   84,   42,   41,   62,   63,   21,   20
** ... 580 like lines cut
*Orientation, name=Ori-1
          1.,           0.,           0.,           0.,           1.,           0.
3, 0.
** Region: (CompositeLayup-1-1: Generated From Layup), (Controls:EC-1)
*Elset, elset=CompositeLayup-1-1, generate
   1,  600,    1
** Section: CompositeLayup-1-1
*Solid Section, elset=CompositeLayup-1-1, composite, orientation=Ori-1, controls=EC-1, stack direction=3, layup=CompositeLayup-1
1., 1, UMat-T700, 0., Ply-1
*End Part
**  
**
** ASSEMBLY
**
*Assembly, name=Assembly
**  
*Instance, name=Part-1-1, part=Part-1
*End Instance
**  
*Node
      1,          15.,           5.,  0.075000003
*Node
      2,           0.,           0.,           0.
*Nset, nset=Set-Nds, instance=Part-1-1, generate
  1,  42,   1
*Nset, nset=Set-RP
 1,
*Nset, nset=_PickedSet4, internal, instance=Part-1-1, generate
 1261,  1302,     1
*Elset, elset=_PickedSet4, internal, instance=Part-1-1, generate
 581,  600,    1
*Nset, nset=_PickedSet5, internal, instance=Part-1-1, generate
   21,  1302,    21
*Elset, elset=_PickedSet5, internal, instance=Part-1-1, generate
  20,  600,   20
*Nset, nset=_PickedSet8, internal, instance=Part-1-1
   22,   23,   24,   25,   26,   27,   28,   29,   30,   31,   32,   33,   34,   35,   36,   37
   38,   39,   40,   41,   42,   64,   65,   66,   67,   68,   69,   70,   71,   72,   73,   74
   75,   76,   77,   78,   79,   80,   81,   82,   83,   84,  106,  107,  108,  109,  110,  111
  112,  113,  114,  115,  116,  117,  118,  119,  120,  121,  122,  123,  124,  125,  126,  148
  149,  150,  151,  152,  153,  154,  155,  156,  157,  158,  159,  160,  161,  162,  163,  164
  165,  166,  167,  168,  190,  191,  192,  193,  194,  195,  196,  197,  198,  199,  200,  201
  202,  203,  204,  205,  206,  207,  208,  209,  210,  232,  233,  234,  235,  236,  237,  238
  239,  240,  241,  242,  243,  244,  245,  246,  247,  248,  249,  250,  251,  252,  274,  275
  276,  277,  278,  279,  280,  281,  282,  283,  284,  285,  286,  287,  288,  289,  290,  291
  292,  293,  294,  316,  317,  318,  319,  320,  321,  322,  323,  324,  325,  326,  327,  328
  329,  330,  331,  332,  333,  334,  335,  336,  358,  359,  360,  361,  362,  363,  364,  365
  366,  367,  368,  369,  370,  371,  372,  373,  374,  375,  376,  377,  378,  400,  401,  402
  403,  404,  405,  406,  407,  408,  409,  410,  411,  412,  413,  414,  415,  416,  417,  418
  419,  420,  442,  443,  444,  445,  446,  447,  448,  449,  450,  451,  452,  453,  454,  455
  456,  457,  458,  459,  460,  461,  462,  484,  485,  486,  487,  488,  489,  490,  491,  492
  493,  494,  495,  496,  497,  498,  499,  500,  501,  502,  503,  504,  526,  527,  528,  529
  530,  531,  532,  533,  534,  535,  536,  537,  538,  539,  540,  541,  542,  543,  544,  545
  546,  568,  569,  570,  571,  572,  573,  574,  575,  576,  577,  578,  579,  580,  581,  582
  583,  584,  585,  586,  587,  588,  610,  611,  612,  613,  614,  615,  616,  617,  618,  619
  620,  621,  622,  623,  624,  625,  626,  627,  628,  629,  630,  652,  653,  654,  655,  656
** ... 21 like lines cut
*Elset, elset=_PickedSet8, internal, instance=Part-1-1, generate
   1,  600,    1
*Nset, nset=_PickedSet14, internal
 1,
** Constraint: Constraint-1
*Equation
2
Set-Nds, 1, 1.
Set-RP, 1, -1.
*End Assembly
** 
** ELEMENT CONTROLS
** 
*Section Controls, name=EC-1, hourglass=ENHANCED
1., 1., 1.
** 
** MATERIALS
** 
*Material, name=Mat-T700
*Elastic, type=ENGINEERING CONSTANTS
114000.,8610.,8610.,  0.3,  0.3, 0.45,4160.,4160.
3000.,
*Material, name=UMat-T700
*Depvar
      1,
*User Material, constants=7, unsymm
230000.,15000.,  0.27,  0.49,24000., 5030., 4900.
** 
** BOUNDARY CONDITIONS
** 
** Name: BC-X Type: Symmetry/Antisymmetry/Encastre
*Boundary
_PickedSet4, XSYMM
** Name: BC-Y Type: Symmetry/Antisymmetry/Encastre
*Boundary
_PickedSet5, YSYMM
** Name: BC-Z Type: Symmetry/Antisymmetry/Encastre
*Boundary
_PickedSet8, ZSYMM
** ----------------------------------------------------------------
** 
** STEP: Step-1
** 
*Step, name=Step-1, nlgeom=YES, inc=10000
*Static
0.01, 1., 1e-15, 0.01
** 
** BOUNDARY CONDITIONS
** 
** Name: U1 Type: Displacement/Rotation
*Boundary
_PickedSet14, 1, 1, 0.4
** 
** OUTPUT REQUESTS
** 
*Restart, write, frequency=0
** 
** FIELD OUTPUT: F-Output-1
** 
*Output, field, time interval=0.01
*Node Output
U, 
*Element Output, directions=YES
E, S, SDV
** 
** HISTORY OUTPUT: H-Output-1
** 
*Output, history, time interval=0.01
*Node Output, nset=Set-RP
RF1, U1
*End Step
