*Heading
** Job name: Job-6 Model name: Model-1-Copy
** Generated by: Abaqus/CAE 2022
*Preprint, echo=NO, model=NO, history=NO, contact=NO
**
** PARTS
**
*Part, name=Part-1
*Node
      1,          15.,           0.,           0.
      2,         14.5,           0.,           0.
      3,          14.,           0.,           0.
      4,         13.5,           0.,           0.
      5,          13.,           0.,           0.
      6,         12.5,           0.,           0.
      7,          12.,           0.,           0.
      8,         11.5,           0.,           0.
      9,          11.,           0.,           0.
     10,         10.5,           0.,           0.
     11,          10.,           0.,           0.
     12,          9.5,           0.,           0.
     13,           9.,           0.,           0.
     14,          8.5,           0.,           0.
     15,           8.,           0.,           0.
     16,          7.5,           0.,           0.
     17,           7.,           0.,           0.
     18,          6.5,           0.,           0.
     19,           6.,           0.,           0.
     20,          5.5,           0.,           0.
** ... 1282 like lines cut
*Element, type=SC8R
  1,   32,   33,    2,    1,  683,  684,  653,  652
  2,   33,   34,    3,    2,  684,  685,  654,  653
  3,   34,   35,    4,    3,  685,  686,  655,  654
  4,   35,   36,    5,    4,  686,  687,  656,  655
  5,   36,   37,    6,    5,  687,  688,  657,  656
  6,   37,   38,    7,    6,  688,  689,  658,  657
  7,   38,   39,    8,    7,  689,  690,  659,  658
  8,   39,   40,    9,    8,  690,  691,  660,  659
  9,   40,   41,   10,    9,  691,  692,  661,  660
 10,   41,   42,   11,   10,  692,  693,  662,  661
 11,   42,   43,   12,   11,  693,  694,  663,  662
 12,   43,   44,   13,   12,  694,  695,  664,  663
 13,   44,   45,   14,   13,  695,  696,  665,  664
 14,   45,   46,   15,   14,  696,  697,  666,  665
 15,   46,   47,   16,   15,  697,  698,  667,  666
 16,   47,   48,   17,   16,  698,  699,  668,  667
 17,   48,   49,   18,   17,  699,  700,  669,  668
 18,   49,   50,   19,   18,  700,  701,  670,  669
 19,   50,   51,   20,   19,  701,  702,  671,  670
 20,   51,   52,   21,   20,  702,  703,  672,  671
** ... 580 like lines cut
*Nset, nset=Set-nds, generate
    1,  1272,    31
*Orientation, name=Ori-1
          1.,           0.,           0.,           0.,           1.,           0.
3, 0.
** Region: (CompositeLayup-1-1: Generated From Layup)
*Elset, elset=CompositeLayup-1-1, generate
   1,  600,    1
** Section: CompositeLayup-1-1
*Shell Section, elset=CompositeLayup-1-1, composite, orientation=Ori-1, stack direction=3, layup=CompositeLayup-1
1., 3, Material-3, 0., Ply-1
*End Part
**  
**
** ASSEMBLY
**
*Assembly, name=Assembly
**  
*Instance, name=Part-1-1, part=Part-1
*End Instance
**  
*Node
      1,          15.,           5.,  0.075000003
*Node
      2,           0.,           0.,           0.
*Nset, nset=Set-RP
 1,
*Nset, nset=_PickedSet4, internal, instance=Part-1-1, generate
   31,  1302,    31
*Elset, elset=_PickedSet4, internal, instance=Part-1-1, generate
  30,  600,   30
*Nset, nset=_PickedSet5, internal, instance=Part-1-1
   1,   2,   3,   4,   5,   6,   7,   8,   9,  10,  11,  12,  13,  14,  15,  16
  17,  18,  19,  20,  21,  22,  23,  24,  25,  26,  27,  28,  29,  30,  31, 652
 653, 654, 655, 656, 657, 658, 659, 660, 661, 662, 663, 664, 665, 666, 667, 668
 669, 670, 671, 672, 673, 674, 675, 676, 677, 678, 679, 680, 681, 682
*Elset, elset=_PickedSet5, internal, instance=Part-1-1, generate
  1,  30,   1
*Nset, nset=_PickedSet8, internal, instance=Part-1-1, generate
   1,  651,    1
*Elset, elset=_PickedSet8, internal, instance=Part-1-1, generate
   1,  600,    1
*Nset, nset=_PickedSet14, internal
 1,
** Constraint: Constraint-1
*Equation
2
Part-1-1.Set-nds, 1, 1.
Set-RP, 1, -1.
*End Assembly
** 
** MATERIALS
** 
*Material, name=Mat-T700
*Elastic, type=ENGINEERING CONSTANTS
114000.,8610.,8610.,  0.3,  0.3, 0.45,4160.,4160.
3000.,
*Material, name=Material-3
*Damage Initiation, criterion=HASHIN
4900., 2470.,   61.,  108., 41.03, 41.03
*Damage Evolution, type=ENERGY
 12.5, 12.5,   1.,   1.
*Elastic, type=LAMINA
230000.,15000.,  0.27,24000.,24000., 5030.
*Material, name=UMat-T700
*Depvar
      1,
*User Material, constants=7, unsymm
230000.,15000.,  0.27,  0.49,24000., 5030., 4900.
** 
** BOUNDARY CONDITIONS
** 
** Name: BC-X Type: Symmetry/Antisymmetry/Encastre
*Boundary
_PickedSet4, XSYMM
** Name: BC-Y Type: Symmetry/Antisymmetry/Encastre
*Boundary
_PickedSet5, YSYMM
** Name: BC-Z Type: Symmetry/Antisymmetry/Encastre
*Boundary
_PickedSet8, ZSYMM
** ----------------------------------------------------------------
** 
** STEP: Step-1
** 
*Step, name=Step-1, nlgeom=YES, inc=10000
*Static
0.01, 1., 1e-15, 0.01
** 
** BOUNDARY CONDITIONS
** 
** Name: U1 Type: Displacement/Rotation
*Boundary
_PickedSet14, 1, 1, 0.4
** 
** OUTPUT REQUESTS
** 
*Restart, write, frequency=0
** 
** FIELD OUTPUT: F-Output-2
** 
*Output, field
*Element Output, elset=Part-1-1.CompositeLayup-1-1, directions=YES
2
DAMAGEFC, DAMAGEFT, DAMAGEMC, DAMAGEMT, DAMAGESHR, DMICRT, LE, PE, PEEQ, S, SDEG, STATUS
** 
** FIELD OUTPUT: F-Output-1
** 
*Output, field, variable=PRESELECT, time interval=0.01
** 
** HISTORY OUTPUT: H-Output-2
** 
*Output, history, time interval=0.01
*Node Output, nset=Set-RP
RF1, U1
** 
** HISTORY OUTPUT: H-Output-1
** 
*Output, history, variable=PRESELECT, time interval=0.01
*End Step
